#======================================================================

# CRYSTAL DATA

#----------------------------------------------------------------------

data_VESTA_phase_1


_chemical_name_common                  'BiFeO3'
_cell_length_a                         5.58000
_cell_length_b                         5.58000
_cell_length_c                         13.86000
_cell_angle_alpha                      90
_cell_angle_beta                       90
_cell_angle_gamma                      120
_space_group_name_H-M_alt              'R 3 c'
_space_group_IT_number                 161

loop_
_space_group_symop_operation_xyz
   'x, y, z'
   '-y, x-y, z'
   '-x+y, -x, z'
   '-y, -x, z+1/2'
   '-x+y, y, z+1/2'
   'x, x-y, z+1/2'
   'x+2/3, y+1/3, z+1/3'
   '-y+2/3, x-y+1/3, z+1/3'
   '-x+y+2/3, -x+1/3, z+1/3'
   '-y+2/3, -x+1/3, z+5/6'
   '-x+y+2/3, y+1/3, z+5/6'
   'x+2/3, x-y+1/3, z+5/6'
   'x+1/3, y+2/3, z+2/3'
   '-y+1/3, x-y+2/3, z+2/3'
   '-x+y+1/3, -x+2/3, z+2/3'
   '-y+1/3, -x+2/3, z+1/6'
   '-x+y+1/3, y+2/3, z+1/6'
   'x+1/3, x-y+2/3, z+1/6'

loop_
   _atom_site_label
   _atom_site_occupancy
   _atom_site_fract_x
   _atom_site_fract_y
   _atom_site_fract_z
   _atom_site_adp_type
   _atom_site_B_iso_or_equiv
   _atom_site_type_symbol
   Bi         1.0     0.000000      0.000000      0.000000     Biso  1.000000 Bi
   Fe         1.0     0.000000      0.000000      0.221200     Biso  1.000000 Fe
   O          1.0     0.473000      0.012000      0.954300     Biso  1.000000 O

